Version 4
SHEET 1 880 680
SYMBOL diode 144 64 R0
SYMATTR InstName D1
SYMBOL diode 240 64 R0
SYMATTR InstName D2
SYMBOL diode 336 64 R0
SYMATTR InstName D3
